#p geom=connectivity and charge check here keywords multiplicity. ut

3,4:9,10-Perylenetetracarboxylic anhydride

0 1
 C                 -0.20161000   -0.23920000    1.30233000
 C                 -0.06632000   -1.31560000    0.42840000
 C                 -0.12733000    1.06444000    0.82252000
 C                 -0.38996000   -0.53820000    2.51897000
 C                 -0.14060000   -2.71492000    0.90820000
 C                 -0.25201000    2.16476000    1.62791000
 C                 -0.51729000    0.52624000    3.34150000
 C                 -0.00796000   -3.77936000    0.05141000
 C                 -0.44301000    1.80596000    2.86169000
 C                 -0.18039000    3.49232000    1.16524000
 C                 -0.57831000    2.95412000    3.73562000
 C                 -0.31833000    4.53284000    2.05631000
 O                 -0.50403000    4.24580000    3.25582000
 O                 -0.74278000    2.61924000    4.79805000
 O                 -0.26528000    5.75276000    1.71359000
 C                  0.12733000   -1.06444000   -0.82252000
 C                  0.20161000    0.23920000   -1.30233000
 C                  0.06632000    1.31560000   -0.42840000
 C                  0.00796000    3.77936000   -0.05141000
 C                  0.14060000    2.71492000   -0.90820000
 C                  0.38996000    0.53820000   -2.51897000
 C                  0.51729000   -0.52624000   -3.34150000
 C                  0.44301000   -1.80596000   -2.86169000
 C                  0.25201000   -2.16476000   -1.62791000
 C                  0.18039000   -3.49232000   -1.16524000
 C                  0.31833000   -4.53284000   -2.05631000
 O                  0.50403000   -4.24580000   -3.25582000
 C                  0.57831000   -2.95412000   -3.73562000
 O                  0.74278000   -2.61924000   -4.79805000
 O                  0.26528000   -5.75276000   -1.71359000
 H                  0.06086650    4.79193464   -0.39316064
 H                  0.30180465    2.90098217   -1.94949435
 H                  0.44370007    1.54891012   -2.86606806
 H                  0.67913209   -0.36580789   -4.38695142
 H                 -0.06086650   -4.79193464    0.39316064
 H                 -0.30180465   -2.90098217    1.94949435
 H                 -0.44370007   -1.54891012    2.86606806
 H                 -0.67913209    0.36580789    4.38695142

 1 2 1.5 3 1.5 4 2.0
 2 5 1.0 16 2.0
 3 6 2.0 18 2.0
 4 7 2.0 37 1.0
 5 8 2.0 36 1.0
 6 9 2.0 10 1.5
 7 9 2.0 38 1.0
 8 25 2.0 35 1.0
 9 11 1.0
 10 12 2.0 19 2.0
 11 13 1.0 14 3.0
 12 13 2.0 15 2.0
 13
 14
 15
 16 17 1.5 24 2.0
 17 18 1.5 21 2.0
 18 20 1.0
 19 20 2.0 31 1.0
 20 32 1.0
 21 22 2.0 33 1.0
 22 23 2.0 34 1.0
 23 24 2.0 28 1.0
 24 25 1.5
 25 26 2.0
 26 27 2.0 30 2.0
 27 28 1.0
 28 29 3.0
 29
 30
 31
 32
 33
 34
 35
 36
 37
 38

